psse/psse-converter/src/test/resources/IEEE_57_bus_updated_exported.raw
0,100.0,33,0.0,0.0,60.0
 08/25/93 UW ARCHIVE           100.0  1961 W IEEE 57 Bus Test Case

1,'Kanawha     ',138.0,3,1,1,1,1.04,0.0
2,'Turner      ',138.0,2,1,1,1,1.01,-1.1882
3,'Logan       ',138.0,2,1,1,1,0.9850000000000001,-5.9881
4,'Sprigg      ',138.0,1,1,1,1,0.9807799999999999,-7.3374
5,'Bus 5       ',138.0,1,1,1,1,0.9765,-8.5464
6,'Beaver C    ',138.0,2,1,1,1,0.9800000000000001,-8.6741
7,'Bus 7       ',138.0,1,1,1,1,0.9842000000000001,-7.6014
8,'Clinch R    ',138.0,2,1,1,1,1.005,-4.4779
9,'Saltvill    ',138.0,2,1,1,1,0.9800000000000001,-9.5847
10,'Bus 10      ',138.0,1,1,1,1,0.9862400000000001,-11.4497
11,'Tazewell    ',138.0,1,1,1,1,0.9739600000000002,-10.1932
12,'Glen Lyn    ',138.0,2,1,1,1,1.015,-10.4712
13,'Bus 13      ',138.0,1,1,1,1,0.9788900000000001,-9.8035
14,'Bus 14      ',138.0,1,1,1,1,0.9701799999999999,-9.3503
15,'Bus 15      ',138.0,1,1,1,1,0.98803,-7.1902
16,'Bus 16      ',138.0,1,1,1,1,1.01337,-8.8589
17,'Bus 17      ',138.0,1,1,1,1,1.01745,-5.3959
18,'Sprigg      ',138.0,1,1,1,1,1.00066,-11.7296
19,'Bus 19      ',138.0,1,1,1,1,0.97016,-13.2265
20,'Bus 20      ',138.0,1,1,1,1,0.9637899999999999,-13.4443
21,'Bus 21      ',138.0,1,1,1,1,1.0085,-12.929
22,'Bus 22      ',138.0,1,1,1,1,1.00974,-12.8743
23,'Bus 23      ',138.0,1,1,1,1,1.00833,-12.9396
24,'Bus 24      ',138.0,1,1,1,1,0.9992299999999998,-13.2921
25,'Bus 25      ',138.0,1,1,1,1,0.9825200000000001,-18.1732
26,'Bus 26      ',138.0,1,1,1,1,0.95882,-12.9813
27,'Bus 27      ',138.0,1,1,1,1,0.98154,-11.5136
28,'Bus 28      ',138.0,1,1,1,1,0.99668,-10.4816
29,'Bus 29      ',138.0,1,1,1,1,1.01022,-9.7718
30,'Bus 30      ',138.0,1,1,1,1,0.9626600000000001,-18.7196
31,'Bus 31      ',138.0,1,1,1,1,0.93593,-19.3838
32,'Bus 32      ',138.0,1,1,1,1,0.9498700000000001,-18.5123
33,'Bus 33      ',138.0,1,1,1,1,0.94758,-18.552
34,'Bus 34      ',138.0,1,1,1,1,0.9592000000000002,-14.149
35,'Bus 35      ',138.0,1,1,1,1,0.9662100000000001,-13.9062
36,'Bus 36      ',138.0,1,1,1,1,0.9758299999999999,-13.6348
37,'Bus 37      ',138.0,1,1,1,1,0.9848900000000002,-13.4459
38,'Bus 38      ',138.0,1,1,1,1,1.01281,-12.7346
39,'Bus 39      ',138.0,1,1,1,1,0.9828200000000001,-13.491
40,'Bus 40      ',138.0,1,1,1,1,0.9728100000000001,-13.6582
41,'Tazewell    ',138.0,1,1,1,1,0.9962200000000001,-14.0767
42,'Bus 42      ',138.0,1,1,1,1,0.9665299999999999,-15.5328
43,'Tazewell    ',138.0,1,1,1,1,1.00956,-11.3544
44,'Bus 44      ',138.0,1,1,1,1,1.0168,-11.8565
45,'Bus 45      ',138.0,1,1,1,1,1.036,-9.2701
46,'Bus 46      ',138.0,1,1,1,1,1.0598,-11.1161
47,'Bus 47      ',138.0,1,1,1,1,1.03325,-12.5116
48,'Bus 48      ',138.0,1,1,1,1,1.02735,-12.6107
49,'Bus 49      ',138.0,1,1,1,1,1.03625,-12.9361
50,'Bus 50      ',138.0,1,1,1,1,1.02334,-13.4127
51,'Bus 51      ',138.0,1,1,1,1,1.05226,-12.5334
52,'Bus 52      ',138.0,1,1,1,1,0.98037,-11.4976
53,'Bus 53      ',138.0,1,1,1,1,0.9709499999999999,-12.2526
54,'Bus 54      ',138.0,1,1,1,1,0.9963199999999999,-11.7097
55,'Saltvill    ',138.0,1,1,1,1,1.03079,-10.8011
56,'Bus 56      ',138.0,1,1,1,1,0.9683699999999998,-16.0651
57,'Bus 57      ',138.0,1,1,1,1,0.9648299999999999,-16.5837
0 / END OF BUS DATA, BEGIN LOAD DATA
1,'1 ',1,1,1,55.0,17.0,0.0,0.0,0.0,-0.0,1,1
2,'1 ',1,1,1,3.0,88.0,0.0,0.0,0.0,-0.0,1,1
3,'1 ',1,1,1,41.0,21.0,0.0,0.0,0.0,-0.0,1,1
5,'1 ',1,1,1,13.0,4.0,0.0,0.0,0.0,-0.0,1,1
6,'1 ',1,1,1,75.0,2.0,0.0,0.0,0.0,-0.0,1,1
8,'1 ',1,1,1,150.0,22.0,0.0,0.0,0.0,-0.0,1,1
9,'1 ',1,1,1,121.0,26.0,0.0,0.0,0.0,-0.0,1,1
10,'1 ',1,1,1,5.0,2.0,0.0,0.0,0.0,-0.0,1,1
12,'1 ',1,1,1,377.0,24.0,0.0,0.0,0.0,-0.0,1,1
13,'1 ',1,1,1,18.0,2.3,0.0,0.0,0.0,-0.0,1,1
14,'1 ',1,1,1,10.5,5.3,0.0,0.0,0.0,-0.0,1,1
15,'1 ',1,1,1,22.0,5.0,0.0,0.0,0.0,-0.0,1,1
16,'1 ',1,1,1,43.0,3.0,0.0,0.0,0.0,-0.0,1,1
17,'1 ',1,1,1,42.0,8.0,0.0,0.0,0.0,-0.0,1,1
18,'1 ',1,1,1,27.2,9.8,0.0,0.0,0.0,-0.0,1,1
19,'1 ',1,1,1,3.3,0.6,0.0,0.0,0.0,-0.0,1,1
20,'1 ',1,1,1,2.3,1.0,0.0,0.0,0.0,-0.0,1,1
23,'1 ',1,1,1,6.3,2.1,0.0,0.0,0.0,-0.0,1,1
25,'1 ',1,1,1,6.3,3.2,0.0,0.0,0.0,-0.0,1,1
27,'1 ',1,1,1,9.3,0.5,0.0,0.0,0.0,-0.0,1,1
28,'1 ',1,1,1,4.6,2.3,0.0,0.0,0.0,-0.0,1,1
29,'1 ',1,1,1,17.0,2.6,0.0,0.0,0.0,-0.0,1,1
30,'1 ',1,1,1,3.6,1.8,0.0,0.0,0.0,-0.0,1,1
31,'1 ',1,1,1,5.8,2.9,0.0,0.0,0.0,-0.0,1,1
32,'1 ',1,1,1,1.6,0.8,0.0,0.0,0.0,-0.0,1,1
33,'1 ',1,1,1,3.8,1.9,0.0,0.0,0.0,-0.0,1,1
35,'1 ',1,1,1,6.0,3.0,0.0,0.0,0.0,-0.0,1,1
38,'1 ',1,1,1,14.0,7.0,0.0,0.0,0.0,-0.0,1,1
41,'1 ',1,1,1,6.3,3.0,0.0,0.0,0.0,-0.0,1,1
42,'1 ',1,1,1,7.1,4.4,0.0,0.0,0.0,-0.0,1,1
43,'1 ',1,1,1,2.0,1.0,0.0,0.0,0.0,-0.0,1,1
44,'1 ',1,1,1,12.0,1.8,0.0,0.0,0.0,-0.0,1,1
47,'1 ',1,1,1,29.7,11.6,0.0,0.0,0.0,-0.0,1,1
49,'1 ',1,1,1,18.0,8.5,0.0,0.0,0.0,-0.0,1,1
50,'1 ',1,1,1,21.0,10.5,0.0,0.0,0.0,-0.0,1,1
51,'1 ',1,1,1,18.0,5.3,0.0,0.0,0.0,-0.0,1,1
52,'1 ',1,1,1,4.9,2.2,0.0,0.0,0.0,-0.0,1,1
53,'1 ',1,1,1,20.0,10.0,0.0,0.0,0.0,-0.0,1,1
54,'1 ',1,1,1,4.1,1.4,0.0,0.0,0.0,-0.0,1,1
55,'1 ',1,1,1,6.8,3.4,0.0,0.0,0.0,-0.0,1,1
56,'1 ',1,1,1,7.6,2.2,0.0,0.0,0.0,-0.0,1,1
57,'1 ',1,1,1,6.7,2.0,0.0,0.0,0.0,-0.0,1,1
0 / END OF LOAD DATA, BEGIN FIXED SHUNT DATA
18,' 1',1,0.0,10.0
25,' 1',1,0.0,5.9
53,' 1',1,0.0,6.299999999999999
0 / END OF FIXED SHUNT DATA, BEGIN GENERATOR DATA
1,'1 ',478.664,128.849,0.0,0.0,1.04,0,100.0,0.0,1.0,0.0,0.0,1.0,1,100.0,10000.0,-10000.0,1,1.0,0,1.0,0,1.0,0,1.0,0,1.0
2,'1 ',0.0,-0.755,50.0,-17.0,1.01,0,100.0,0.0,1.0,0.0,0.0,1.0,1,100.0,10000.0,-10000.0,1,1.0,0,1.0,0,1.0,0,1.0,0,1.0
3,'1 ',40.0,-0.905,60.0,-10.0,0.985,0,100.0,0.0,1.0,0.0,0.0,1.0,1,100.0,10000.0,-10000.0,1,1.0,0,1.0,0,1.0,0,1.0,0,1.0
6,'1 ',0.0,0.871,25.0,-8.0,0.98,0,100.0,0.0,1.0,0.0,0.0,1.0,1,100.0,10000.0,-10000.0,1,1.0,0,1.0,0,1.0,0,1.0,0,1.0
8,'1 ',450.0,62.1,200.0,-140.0,1.005,0,100.0,0.0,1.0,0.0,0.0,1.0,1,100.0,10000.0,-10000.0,1,1.0,0,1.0,0,1.0,0,1.0,0,1.0
9,'1 ',0.0,2.288,9.0,-3.0,0.98,0,100.0,0.0,1.0,0.0,0.0,1.0,1,100.0,10000.0,-10000.0,1,1.0,0,1.0,0,1.0,0,1.0,0,1.0
12,'1 ',310.0,128.631,155.0,-150.0,1.015,0,100.0,0.0,1.0,0.0,0.0,1.0,1,100.0,10000.0,-10000.0,1,1.0,0,1.0,0,1.0,0,1.0,0,1.0
0 / END OF GENERATOR DATA, BEGIN BRANCH DATA
1,2,'1 ',0.0083,0.028,0.129,0.0,0.0,0.0,0.0,0.0,0.0,0.0,1,1,0.0,1,1.0,0,1.0,0,1.0,0,1.0
1,15,'1 ',0.0178,0.091,0.0988,0.0,0.0,0.0,0.0,0.0,0.0,0.0,1,1,0.0,1,1.0,0,1.0,0,1.0,0,1.0
1,16,'1 ',0.0454,0.206,0.0546,0.0,0.0,0.0,0.0,0.0,0.0,0.0,1,1,0.0,1,1.0,0,1.0,0,1.0,0,1.0
1,17,'1 ',0.0238,0.108,0.0286,0.0,0.0,0.0,0.0,0.0,0.0,0.0,1,1,0.0,1,1.0,0,1.0,0,1.0,0,1.0
2,3,'1 ',0.0298,0.085,0.0818,0.0,0.0,0.0,0.0,0.0,0.0,0.0,1,1,0.0,1,1.0,0,1.0,0,1.0,0,1.0
3,4,'1 ',0.0112,0.0366,0.038,0.0,0.0,0.0,0.0,0.0,0.0,0.0,1,1,0.0,1,1.0,0,1.0,0,1.0,0,1.0
3,15,'1 ',0.0162,0.053,0.0544,0.0,0.0,0.0,0.0,0.0,0.0,0.0,1,1,0.0,1,1.0,0,1.0,0,1.0,0,1.0
4,5,'1 ',0.0625,0.132,0.0258,0.0,0.0,0.0,0.0,0.0,0.0,0.0,1,1,0.0,1,1.0,0,1.0,0,1.0,0,1.0
4,6,'1 ',0.043,0.148,0.0348,0.0,0.0,0.0,0.0,0.0,0.0,0.0,1,1,0.0,1,1.0,0,1.0,0,1.0,0,1.0
5,6,'1 ',0.0302,0.0641,0.0124,0.0,0.0,0.0,0.0,0.0,0.0,0.0,1,1,0.0,1,1.0,0,1.0,0,1.0,0,1.0
6,7,'1 ',0.02,0.102,0.0276,0.0,0.0,0.0,0.0,0.0,0.0,0.0,1,1,0.0,1,1.0,0,1.0,0,1.0,0,1.0
6,8,'1 ',0.0339,0.173,0.047,0.0,0.0,0.0,0.0,0.0,0.0,0.0,1,1,0.0,1,1.0,0,1.0,0,1.0,0,1.0
7,8,'1 ',0.0139,0.0712,0.0194,0.0,0.0,0.0,0.0,0.0,0.0,0.0,1,1,0.0,1,1.0,0,1.0,0,1.0,0,1.0
8,9,'1 ',0.0099,0.0505,0.0548,0.0,0.0,0.0,0.0,0.0,0.0,0.0,1,1,0.0,1,1.0,0,1.0,0,1.0,0,1.0
9,10,'1 ',0.0369,0.1679,0.044,0.0,0.0,0.0,0.0,0.0,0.0,0.0,1,1,0.0,1,1.0,0,1.0,0,1.0,0,1.0
9,11,'1 ',0.0258,0.0848,0.0218,0.0,0.0,0.0,0.0,0.0,0.0,0.0,1,1,0.0,1,1.0,0,1.0,0,1.0,0,1.0
9,12,'1 ',0.0648,0.295,0.0772,0.0,0.0,0.0,0.0,0.0,0.0,0.0,1,1,0.0,1,1.0,0,1.0,0,1.0,0,1.0
9,13,'1 ',0.0481,0.158,0.0406,0.0,0.0,0.0,0.0,0.0,0.0,0.0,1,1,0.0,1,1.0,0,1.0,0,1.0,0,1.0
10,12,'1 ',0.0277,0.1262,0.0328,0.0,0.0,0.0,0.0,0.0,0.0,0.0,1,1,0.0,1,1.0,0,1.0,0,1.0,0,1.0
11,13,'1 ',0.0223,0.0732,0.0188,0.0,0.0,0.0,0.0,0.0,0.0,0.0,1,1,0.0,1,1.0,0,1.0,0,1.0,0,1.0
12,13,'1 ',0.0178,0.058,0.0604,0.0,0.0,0.0,0.0,0.0,0.0,0.0,1,1,0.0,1,1.0,0,1.0,0,1.0,0,1.0
12,16,'1 ',0.018,0.0813,0.0216,0.0,0.0,0.0,0.0,0.0,0.0,0.0,1,1,0.0,1,1.0,0,1.0,0,1.0,0,1.0
12,17,'1 ',0.0397,0.179,0.0476,0.0,0.0,0.0,0.0,0.0,0.0,0.0,1,1,0.0,1,1.0,0,1.0,0,1.0,0,1.0
13,14,'1 ',0.0132,0.0434,0.011,0.0,0.0,0.0,0.0,0.0,0.0,0.0,1,1,0.0,1,1.0,0,1.0,0,1.0,0,1.0
13,15,'1 ',0.0269,0.0869,0.023,0.0,0.0,0.0,0.0,0.0,0.0,0.0,1,1,0.0,1,1.0,0,1.0,0,1.0,0,1.0
14,15,'1 ',0.0171,0.0547,0.0148,0.0,0.0,0.0,0.0,0.0,0.0,0.0,1,1,0.0,1,1.0,0,1.0,0,1.0,0,1.0
18,19,'1 ',0.461,0.685,0.0,0.0,0.0,0.0,0.0,0.0,0.0,0.0,1,1,0.0,1,1.0,0,1.0,0,1.0,0,1.0
19,20,'1 ',0.283,0.434,0.0,0.0,0.0,0.0,0.0,0.0,0.0,0.0,1,1,0.0,1,1.0,0,1.0,0,1.0,0,1.0
21,22,'1 ',0.0736,0.117,0.0,0.0,0.0,0.0,0.0,0.0,0.0,0.0,1,1,0.0,1,1.0,0,1.0,0,1.0,0,1.0
22,23,'1 ',0.0099,0.0152,0.0,0.0,0.0,0.0,0.0,0.0,0.0,0.0,1,1,0.0,1,1.0,0,1.0,0,1.0,0,1.0
22,38,'1 ',0.0192,0.0295,0.0,0.0,0.0,0.0,0.0,0.0,0.0,0.0,1,1,0.0,1,1.0,0,1.0,0,1.0,0,1.0
23,24,'1 ',0.166,0.256,0.0084,0.0,0.0,0.0,0.0,0.0,0.0,0.0,1,1,0.0,1,1.0,0,1.0,0,1.0,0,1.0
24,25,'1 ',0.0,1.23,0.0,0.0,0.0,0.0,0.0,0.0,0.0,0.0,1,1,0.0,1,1.0,0,1.0,0,1.0,0,1.0
24,25,'2 ',0.0,1.182,0.0,0.0,0.0,0.0,0.0,0.0,0.0,0.0,1,1,0.0,1,1.0,0,1.0,0,1.0,0,1.0
25,30,'1 ',0.135,0.202,0.0,0.0,0.0,0.0,0.0,0.0,0.0,0.0,1,1,0.0,1,1.0,0,1.0,0,1.0,0,1.0
26,27,'1 ',0.165,0.254,0.0,0.0,0.0,0.0,0.0,0.0,0.0,0.0,1,1,0.0,1,1.0,0,1.0,0,1.0,0,1.0
27,28,'1 ',0.0618,0.0954,0.0,0.0,0.0,0.0,0.0,0.0,0.0,0.0,1,1,0.0,1,1.0,0,1.0,0,1.0,0,1.0
28,29,'1 ',0.0418,0.0587,0.0,0.0,0.0,0.0,0.0,0.0,0.0,0.0,1,1,0.0,1,1.0,0,1.0,0,1.0,0,1.0
29,52,'1 ',0.1442,0.187,0.0,0.0,0.0,0.0,0.0,0.0,0.0,0.0,1,1,0.0,1,1.0,0,1.0,0,1.0,0,1.0
30,31,'1 ',0.326,0.497,0.0,0.0,0.0,0.0,0.0,0.0,0.0,0.0,1,1,0.0,1,1.0,0,1.0,0,1.0,0,1.0
31,32,'1 ',0.507,0.755,0.0,0.0,0.0,0.0,0.0,0.0,0.0,0.0,1,1,0.0,1,1.0,0,1.0,0,1.0,0,1.0
32,33,'1 ',0.0392,0.036,0.0,0.0,0.0,0.0,0.0,0.0,0.0,0.0,1,1,0.0,1,1.0,0,1.0,0,1.0,0,1.0
34,35,'1 ',0.052,0.078,0.0032,0.0,0.0,0.0,0.0,0.0,0.0,0.0,1,1,0.0,1,1.0,0,1.0,0,1.0,0,1.0
35,36,'1 ',0.043,0.0537,0.0016,0.0,0.0,0.0,0.0,0.0,0.0,0.0,1,1,0.0,1,1.0,0,1.0,0,1.0,0,1.0
36,37,'1 ',0.029,0.0366,0.0,0.0,0.0,0.0,0.0,0.0,0.0,0.0,1,1,0.0,1,1.0,0,1.0,0,1.0,0,1.0
36,40,'1 ',0.03,0.0466,0.0,0.0,0.0,0.0,0.0,0.0,0.0,0.0,1,1,0.0,1,1.0,0,1.0,0,1.0,0,1.0
37,38,'1 ',0.0651,0.1009,0.002,0.0,0.0,0.0,0.0,0.0,0.0,0.0,1,1,0.0,1,1.0,0,1.0,0,1.0,0,1.0
37,39,'1 ',0.0239,0.0379,0.0,0.0,0.0,0.0,0.0,0.0,0.0,0.0,1,1,0.0,1,1.0,0,1.0,0,1.0,0,1.0
38,44,'1 ',0.0289,0.0585,0.002,0.0,0.0,0.0,0.0,0.0,0.0,0.0,1,1,0.0,1,1.0,0,1.0,0,1.0,0,1.0
38,48,'1 ',0.0312,0.0482,0.0,0.0,0.0,0.0,0.0,0.0,0.0,0.0,1,1,0.0,1,1.0,0,1.0,0,1.0,0,1.0
38,49,'1 ',0.115,0.177,0.003,0.0,0.0,0.0,0.0,0.0,0.0,0.0,1,1,0.0,1,1.0,0,1.0,0,1.0,0,1.0
41,42,'1 ',0.207,0.352,0.0,0.0,0.0,0.0,0.0,0.0,0.0,0.0,1,1,0.0,1,1.0,0,1.0,0,1.0,0,1.0
41,43,'1 ',0.0,0.412,0.0,0.0,0.0,0.0,0.0,0.0,0.0,0.0,1,1,0.0,1,1.0,0,1.0,0,1.0,0,1.0
56,41,'1 ',0.553,0.549,0.0,0.0,0.0,0.0,0.0,0.0,0.0,0.0,1,1,0.0,1,1.0,0,1.0,0,1.0,0,1.0
56,42,'1 ',0.2125,0.354,0.0,0.0,0.0,0.0,0.0,0.0,0.0,0.0,1,1,0.0,1,1.0,0,1.0,0,1.0,0,1.0
44,45,'1 ',0.0624,0.1242,0.004,0.0,0.0,0.0,0.0,0.0,0.0,0.0,1,1,0.0,1,1.0,0,1.0,0,1.0,0,1.0
46,47,'1 ',0.023,0.068,0.0032,0.0,0.0,0.0,0.0,0.0,0.0,0.0,1,1,0.0,1,1.0,0,1.0,0,1.0,0,1.0
47,48,'1 ',0.0182,0.0233,0.0,0.0,0.0,0.0,0.0,0.0,0.0,0.0,1,1,0.0,1,1.0,0,1.0,0,1.0,0,1.0
48,49,'1 ',0.0834,0.129,0.0048,0.0,0.0,0.0,0.0,0.0,0.0,0.0,1,1,0.0,1,1.0,0,1.0,0,1.0,0,1.0
49,50,'1 ',0.0801,0.128,0.0,0.0,0.0,0.0,0.0,0.0,0.0,0.0,1,1,0.0,1,1.0,0,1.0,0,1.0,0,1.0
50,51,'1 ',0.1386,0.22,0.0,0.0,0.0,0.0,0.0,0.0,0.0,0.0,1,1,0.0,1,1.0,0,1.0,0,1.0,0,1.0
52,53,'1 ',0.0762,0.0984,0.0,0.0,0.0,0.0,0.0,0.0,0.0,0.0,1,1,0.0,1,1.0,0,1.0,0,1.0,0,1.0
53,54,'1 ',0.1878,0.232,0.0,0.0,0.0,0.0,0.0,0.0,0.0,0.0,1,1,0.0,1,1.0,0,1.0,0,1.0,0,1.0
54,55,'1 ',0.1732,0.2265,0.0,0.0,0.0,0.0,0.0,0.0,0.0,0.0,1,1,0.0,1,1.0,0,1.0,0,1.0,0,1.0
57,56,'1 ',0.174,0.26,0.0,0.0,0.0,0.0,0.0,0.0,0.0,0.0,1,1,0.0,1,1.0,0,1.0,0,1.0,0,1.0
0 / END OF BRANCH DATA, BEGIN TRANSFORMER DATA
4,18,0,'1 ',1,1,1,0.0,0.0,2,'        ',1,1,1.0,0,1.0,0,1.0,0,1.0
0.0,0.43,100.0
0.978,0.0,0.0,0.0,0.0,0.0,0,0,1.5,0.51,1.5,0.51,159,0,0.0,0.0
1.0,0.0
4,18,0,'2 ',1,1,1,0.0,0.0,2,'        ',1,1,1.0,0,1.0,0,1.0,0,1.0
0.0,0.555,100.0
0.9699999999999999,0.0,0.0,0.0,0.0,0.0,0,0,1.5,0.51,1.5,0.51,159,0,0.0,0.0
1.0,0.0
7,29,0,'1 ',1,1,1,0.0,0.0,2,'        ',1,1,1.0,0,1.0,0,1.0,0,1.0
0.0,0.0648,100.0
0.967,0.0,0.0,0.0,0.0,0.0,0,0,1.5,0.51,1.5,0.51,159,0,0.0,0.0
1.0,0.0
9,55,0,'1 ',1,1,1,0.0,0.0,2,'        ',1,1,1.0,0,1.0,0,1.0,0,1.0
0.0,0.1205,100.0
0.9400000000000001,0.0,0.0,0.0,0.0,0.0,0,0,1.5,0.51,1.5,0.51,159,0,0.0,0.0
1.0,0.0
10,51,0,'1 ',1,1,1,0.0,0.0,2,'        ',1,1,1.0,0,1.0,0,1.0,0,1.0
0.0,0.0712,100.0
0.93,0.0,0.0,0.0,0.0,0.0,0,0,1.5,0.51,1.5,0.51,159,0,0.0,0.0
1.0,0.0
11,41,0,'1 ',1,1,1,0.0,0.0,2,'        ',1,1,1.0,0,1.0,0,1.0,0,1.0
0.0,0.749,100.0
0.955,0.0,0.0,0.0,0.0,0.0,0,0,1.5,0.51,1.5,0.51,159,0,0.0,0.0
1.0,0.0
11,43,0,'1 ',1,1,1,0.0,0.0,2,'        ',1,1,1.0,0,1.0,0,1.0,0,1.0
0.0,0.153,100.0
0.958,0.0,0.0,0.0,0.0,0.0,0,0,1.5,0.51,1.5,0.51,159,0,0.0,0.0
1.0,0.0
13,49,0,'1 ',1,1,1,0.0,0.0,2,'        ',1,1,1.0,0,1.0,0,1.0,0,1.0
0.0,0.191,100.0
0.895,0.0,0.0,0.0,0.0,0.0,0,0,1.5,0.51,1.5,0.51,159,0,0.0,0.0
1.0,0.0
14,46,0,'1 ',1,1,1,0.0,0.0,2,'        ',1,1,1.0,0,1.0,0,1.0,0,1.0
0.0,0.0735,100.0
0.8999999999999999,0.0,0.0,0.0,0.0,0.0,0,0,1.5,0.51,1.5,0.51,159,0,0.0,0.0
1.0,0.0
15,45,0,'1 ',1,1,1,0.0,0.0,2,'        ',1,1,1.0,0,1.0,0,1.0,0,1.0
0.0,0.1042,100.0
0.955,0.0,0.0,0.0,0.0,0.0,0,0,1.5,0.51,1.5,0.51,159,0,0.0,0.0
1.0,0.0
21,20,0,'1 ',1,1,1,0.0,0.0,2,'        ',1,1,1.0,0,1.0,0,1.0,0,1.0
0.0,0.7767,100.0
1.043,0.0,0.0,0.0,0.0,0.0,0,0,1.5,0.51,1.5,0.51,159,0,0.0,0.0
1.0,0.0
24,26,0,'1 ',1,1,1,0.0,0.0,2,'        ',1,1,1.0,0,1.0,0,1.0,0,1.0
0.0,0.0473,100.0
1.043,0.0,0.0,0.0,0.0,0.0,0,0,1.5,0.51,1.5,0.51,159,0,0.0,0.0
1.0,0.0
34,32,0,'1 ',1,1,1,0.0,0.0,2,'        ',1,1,1.0,0,1.0,0,1.0,0,1.0
0.0,0.953,100.0
0.9749999999999999,0.0,0.0,0.0,0.0,0.0,0,0,1.5,0.51,1.5,0.51,159,0,0.0,0.0
1.0,0.0
39,57,0,'1 ',1,1,1,0.0,0.0,2,'        ',1,1,1.0,0,1.0,0,1.0,0,1.0
0.0,1.355,100.0
0.98,0.0,0.0,0.0,0.0,0.0,0,0,1.5,0.51,1.5,0.51,159,0,0.0,0.0
1.0,0.0
40,56,0,'1 ',1,1,1,0.0,0.0,2,'        ',1,1,1.0,0,1.0,0,1.0,0,1.0
0.0,1.195,100.0
0.958,0.0,0.0,0.0,0.0,0.0,0,0,1.5,0.51,1.5,0.51,159,0,0.0,0.0
1.0,0.0
0 / END OF TRANSFORMER DATA, BEGIN AREA DATA
1,0,0.0,1.0,'1           '
0 / END OF AREA DATA, BEGIN TWO-TERMINAL DC DATA
0 / END OF TWO-TERMINAL DC DATA, BEGIN VOLTAGE SOURCE CONVERTER DATA
0 / END OF VOLTAGE SOURCE CONVERTER DATA, BEGIN IMPEDANCE CORRECTION DATA
0 / END OF IMPEDANCE CORRECTION DATA, BEGIN MULTI-TERMINAL DC DATA
0 / END OF MULTI-TERMINAL DC DATA, BEGIN MULTI-SECTION LINE DATA
0 / END OF MULTI-SECTION LINE DATA, BEGIN ZONE DATA
1,'IEEE 57 '
0 / END OF ZONE DATA, BEGIN INTER-AREA TRANSFER DATA
0 / END OF INTER-AREA TRANSFER DATA, BEGIN OWNER DATA
1,'1'
0 / END OF OWNER DATA, BEGIN FACTS CONTROL DEVICE DATA
0 / END OF FACTS CONTROL DEVICE DATA, BEGIN SWITCHED SHUNT DATA
0 / END OF SWITCHED SHUNT DATA, BEGIN GNE DEVICE DATA
0 / END OF GNE DEVICE DATA, BEGIN INDUCTION MACHINE DATA
0 / END OF INDUCTION MACHINE DATA
Q
